MODEL 1
REMARK VINA RESULT:    -8.674      0.000      0.000
REMARK INTER + INTRA:         -12.941
REMARK INTER:                 -11.716
REMARK INTRA:                  -1.225
REMARK UNBOUND:                -1.225
REMARK  6 active torsions:
REMARK  status: ('A' for Active; 'I' for Inactive)
REMARK    1  A    between atoms: C03_1  and  C10_8 
REMARK    2  A    between atoms: C04_2  and  C08_6 
REMARK    3  A    between atoms: C15_13  and  C18_16 
REMARK    4  A    between atoms: C18_16  and  C20_18 
REMARK    5  A    between atoms: C20_18  and  C21_19 
REMARK    6  A    between atoms: C21_19  and  C22_20 
ROOT
ATOM      1  C08 CBD B1001     140.006 145.867 172.452  1.00 27.96     0.033 A 
ATOM      2  C11 CBD B1001     139.210 146.997 172.603  1.00 27.96     0.129 A 
ATOM      3  C12 CBD B1001     139.396 144.625 172.223  1.00 27.96     0.129 A 
ATOM      4  C15 CBD B1001     137.214 145.677 172.375  1.00 27.96    -0.018 A 
ATOM      5  C16 CBD B1001     137.822 146.909 172.582  1.00 27.96     0.023 A 
ATOM      6  C17 CBD B1001     137.999 144.536 172.199  1.00 27.96     0.023 A 
ATOM      7  O01 CBD B1001     139.837 148.233 172.813  1.00 27.96    -0.190 OA
ATOM      8  O02 CBD B1001     140.145 143.453 172.041  1.00 27.96    -0.190 OA
ENDROOT
BRANCH   1   9
ATOM      9  C04 CBD B1001     141.527 146.150 172.472  1.00 27.96     0.051 C 
ATOM     10  C07 CBD B1001     141.962 145.968 171.034  1.00 27.96    -0.030 C 
ATOM     11  C09 CBD B1001     143.119 146.505 170.734  1.00 27.96    -0.048 C 
ATOM     12  C06 CBD B1001     144.310 146.314 171.676  1.00 27.96     0.022 C 
ATOM     13  C13 CBD B1001     143.077 147.784 169.904  1.00 27.96     0.026 C 
ATOM     14  C05 CBD B1001     143.926 145.905 173.114  1.00 27.96     0.009 C 
ATOM     15  C03 CBD B1001     142.517 145.310 173.288  1.00 27.96     0.027 C 
BRANCH  15  16
ATOM     16  C10 CBD B1001     142.251 145.313 174.798  1.00 27.96    -0.044 C 
ATOM     17  C19 CBD B1001     141.642 144.280 175.383  1.00 27.96    -0.009 C 
ATOM     18  C14 CBD B1001     142.659 146.543 175.632  1.00 27.96     0.026 C 
ENDBRANCH  15  16
ENDBRANCH   1   9
BRANCH   4  19
ATOM     19  C18 CBD B1001     135.668 145.601 172.353  1.00 27.96     0.026 C 
BRANCH  19  20
ATOM     20  C20 CBD B1001     135.210 145.042 170.980  1.00 27.96     0.005 C 
BRANCH  20  21
ATOM     21  C21 CBD B1001     134.948 146.211 169.987  1.00 27.96     0.000 C 
BRANCH  21  22
ATOM     22  C22 CBD B1001     134.514 147.467 170.781  1.00 27.96     0.000 C 
ATOM     23  C23 CBD B1001     134.808 148.730 169.935  1.00 27.96     0.000 C 
ENDBRANCH  21  22
ENDBRANCH  20  21
ENDBRANCH  19  20
ENDBRANCH   4  19
TORSDOF 6
ENDMDL
MODEL 2
REMARK VINA RESULT:    -7.097      9.009     12.006
REMARK INTER + INTRA:         -10.811
REMARK INTER:                  -9.894
REMARK INTRA:                  -0.916
REMARK UNBOUND:                -1.225
REMARK  6 active torsions:
REMARK  status: ('A' for Active; 'I' for Inactive)
REMARK    1  A    between atoms: C03_1  and  C10_8 
REMARK    2  A    between atoms: C04_2  and  C08_6 
REMARK    3  A    between atoms: C15_13  and  C18_16 
REMARK    4  A    between atoms: C18_16  and  C20_18 
REMARK    5  A    between atoms: C20_18  and  C21_19 
REMARK    6  A    between atoms: C21_19  and  C22_20 
ROOT
ATOM      1  C08 CBD B1001     137.551 140.846 181.895  1.00 27.96     0.033 A 
ATOM      2  C11 CBD B1001     138.871 141.157 181.589  1.00 27.96     0.129 A 
ATOM      3  C12 CBD B1001     136.516 141.505 181.215  1.00 27.96     0.129 A 
ATOM      4  C15 CBD B1001     138.160 142.811 179.997  1.00 27.96    -0.018 A 
ATOM      5  C16 CBD B1001     139.182 142.143 180.659  1.00 27.96     0.023 A 
ATOM      6  C17 CBD B1001     136.828 142.496 180.276  1.00 27.96     0.023 A 
ATOM      7  O01 CBD B1001     139.892 140.475 182.267  1.00 27.96    -0.190 OA
ATOM      8  O02 CBD B1001     135.165 141.220 181.463  1.00 27.96    -0.190 OA
ENDROOT
BRANCH   1   9
ATOM      9  C04 CBD B1001     137.386 139.706 182.929  1.00 27.96     0.051 C 
ATOM     10  C07 CBD B1001     136.771 138.570 182.140  1.00 27.96    -0.030 C 
ATOM     11  C09 CBD B1001     136.875 137.390 182.699  1.00 27.96    -0.048 C 
ATOM     12  C06 CBD B1001     136.569 137.227 184.190  1.00 27.96     0.022 C 
ATOM     13  C13 CBD B1001     137.894 136.437 182.082  1.00 27.96     0.026 C 
ATOM     14  C05 CBD B1001     136.618 138.541 184.997  1.00 27.96     0.009 C 
ATOM     15  C03 CBD B1001     136.503 139.838 184.176  1.00 27.96     0.027 C 
BRANCH  15  16
ATOM     16  C10 CBD B1001     136.918 140.967 185.126  1.00 27.96    -0.044 C 
ATOM     17  C19 CBD B1001     138.190 141.101 185.508  1.00 27.96    -0.009 C 
ATOM     18  C14 CBD B1001     135.842 141.928 185.669  1.00 27.96     0.026 C 
ENDBRANCH  15  16
ENDBRANCH   1   9
BRANCH   4  19
ATOM     19  C18 CBD B1001     138.528 143.905 178.964  1.00 27.96     0.026 C 
BRANCH  19  20
ATOM     20  C20 CBD B1001     138.490 143.286 177.542  1.00 27.96     0.005 C 
BRANCH  20  21
ATOM     21  C21 CBD B1001     139.935 142.980 177.052  1.00 27.96     0.000 C 
BRANCH  21  22
ATOM     22  C22 CBD B1001     140.104 143.501 175.605  1.00 27.96     0.000 C 
ATOM     23  C23 CBD B1001     141.500 144.155 175.459  1.00 27.96     0.000 C 
ENDBRANCH  21  22
ENDBRANCH  20  21
ENDBRANCH  19  20
ENDBRANCH   4  19
TORSDOF 6
ENDMDL
MODEL 3
REMARK VINA RESULT:    -6.293     11.261     14.163
REMARK INTER + INTRA:          -9.725
REMARK INTER:                  -8.726
REMARK INTRA:                  -1.000
REMARK UNBOUND:                -1.225
REMARK  6 active torsions:
REMARK  status: ('A' for Active; 'I' for Inactive)
REMARK    1  A    between atoms: C03_1  and  C10_8 
REMARK    2  A    between atoms: C04_2  and  C08_6 
REMARK    3  A    between atoms: C15_13  and  C18_16 
REMARK    4  A    between atoms: C18_16  and  C20_18 
REMARK    5  A    between atoms: C20_18  and  C21_19 
REMARK    6  A    between atoms: C21_19  and  C22_20 
ROOT
ATOM      1  C08 CBD B1001     136.750 137.191 181.144  1.00 27.96     0.033 A 
ATOM      2  C11 CBD B1001     137.588 136.111 180.894  1.00 27.96     0.129 A 
ATOM      3  C12 CBD B1001     135.665 137.428 180.289  1.00 27.96     0.129 A 
ATOM      4  C15 CBD B1001     136.337 135.537 178.925  1.00 27.96    -0.018 A 
ATOM      5  C16 CBD B1001     137.400 135.293 179.785  1.00 27.96     0.023 A 
ATOM      6  C17 CBD B1001     135.472 136.604 179.173  1.00 27.96     0.023 A 
ATOM      7  O01 CBD B1001     138.658 135.878 181.771  1.00 27.96    -0.190 OA
ATOM      8  O02 CBD B1001     134.770 138.489 180.500  1.00 27.96    -0.190 OA
ENDROOT
BRANCH   1   9
ATOM      9  C04 CBD B1001     137.086 137.976 182.435  1.00 27.96     0.051 C 
ATOM     10  C07 CBD B1001     136.044 137.520 183.433  1.00 27.96    -0.030 C 
ATOM     11  C09 CBD B1001     136.337 137.761 184.687  1.00 27.96    -0.048 C 
ATOM     12  C06 CBD B1001     136.892 139.130 185.088  1.00 27.96     0.022 C 
ATOM     13  C13 CBD B1001     136.760 136.559 185.526  1.00 27.96     0.026 C 
ATOM     14  C05 CBD B1001     137.491 139.941 183.918  1.00 27.96     0.009 C 
ATOM     15  C03 CBD B1001     137.054 139.507 182.508  1.00 27.96     0.027 C 
BRANCH  15  16
ATOM     16  C10 CBD B1001     138.020 140.204 181.543  1.00 27.96    -0.044 C 
ATOM     17  C19 CBD B1001     139.266 140.495 181.920  1.00 27.96    -0.009 C 
ATOM     18  C14 CBD B1001     137.523 140.605 180.140  1.00 27.96     0.026 C 
ENDBRANCH  15  16
ENDBRANCH   1   9
BRANCH   4  19
ATOM     19  C18 CBD B1001     136.143 134.613 177.696  1.00 27.96     0.026 C 
BRANCH  19  20
ATOM     20  C20 CBD B1001     137.163 133.446 177.779  1.00 27.96     0.005 C 
BRANCH  20  21
ATOM     21  C21 CBD B1001     136.443 132.136 178.210  1.00 27.96     0.000 C 
BRANCH  21  22
ATOM     22  C22 CBD B1001     137.009 130.950 177.394  1.00 27.96     0.000 C 
ATOM     23  C23 CBD B1001     138.347 131.374 176.740  1.00 27.96     0.000 C 
ENDBRANCH  21  22
ENDBRANCH  20  21
ENDBRANCH  19  20
ENDBRANCH   4  19
TORSDOF 6
ENDMDL
MODEL 4
REMARK VINA RESULT:    -6.038     16.612     19.638
REMARK INTER + INTRA:          -9.381
REMARK INTER:                  -8.571
REMARK INTRA:                  -0.810
REMARK UNBOUND:                -1.225
REMARK  6 active torsions:
REMARK  status: ('A' for Active; 'I' for Inactive)
REMARK    1  A    between atoms: C03_1  and  C10_8 
REMARK    2  A    between atoms: C04_2  and  C08_6 
REMARK    3  A    between atoms: C15_13  and  C18_16 
REMARK    4  A    between atoms: C18_16  and  C20_18 
REMARK    5  A    between atoms: C20_18  and  C21_19 
REMARK    6  A    between atoms: C21_19  and  C22_20 
ROOT
ATOM      1  C08 CBD B1001     150.927 131.696 169.374  1.00 27.96     0.033 A 
ATOM      2  C11 CBD B1001     152.075 131.531 168.608  1.00 27.96     0.129 A 
ATOM      3  C12 CBD B1001     150.862 131.109 170.646  1.00 27.96     0.129 A 
ATOM      4  C15 CBD B1001     153.068 130.155 170.309  1.00 27.96    -0.018 A 
ATOM      5  C16 CBD B1001     153.137 130.754 169.057  1.00 27.96     0.023 A 
ATOM      6  C17 CBD B1001     151.932 130.328 171.102  1.00 27.96     0.023 A 
ATOM      7  O01 CBD B1001     152.129 132.141 167.346  1.00 27.96    -0.190 OA
ATOM      8  O02 CBD B1001     149.740 131.257 171.476  1.00 27.96    -0.190 OA
ENDROOT
BRANCH   1   9
ATOM      9  C04 CBD B1001     149.858 132.614 168.735  1.00 27.96     0.051 C 
ATOM     10  C07 CBD B1001     150.030 133.941 169.443  1.00 27.96    -0.030 C 
ATOM     11  C09 CBD B1001     149.497 134.968 168.830  1.00 27.96    -0.048 C 
ATOM     12  C06 CBD B1001     148.085 134.856 168.250  1.00 27.96     0.022 C 
ATOM     13  C13 CBD B1001     150.467 135.922 168.140  1.00 27.96     0.026 C 
ATOM     14  C05 CBD B1001     147.600 133.407 168.031  1.00 27.96     0.009 C 
ATOM     15  C03 CBD B1001     148.356 132.321 168.817  1.00 27.96     0.027 C 
BRANCH  15  16
ATOM     16  C10 CBD B1001     147.939 130.988 168.184  1.00 27.96    -0.044 C 
ATOM     17  C19 CBD B1001     147.943 129.863 168.902  1.00 27.96    -0.009 C 
ATOM     18  C14 CBD B1001     147.550 130.952 166.693  1.00 27.96     0.026 C 
ENDBRANCH  15  16
ENDBRANCH   1   9
BRANCH   4  19
ATOM     19  C18 CBD B1001     154.262 129.294 170.792  1.00 27.96     0.026 C 
BRANCH  19  20
ATOM     20  C20 CBD B1001     153.985 128.818 172.243  1.00 27.96     0.005 C 
BRANCH  20  21
ATOM     21  C21 CBD B1001     154.568 129.839 173.262  1.00 27.96     0.000 C 
BRANCH  21  22
ATOM     22  C22 CBD B1001     154.017 129.523 174.672  1.00 27.96     0.000 C 
ATOM     23  C23 CBD B1001     154.651 130.496 175.696  1.00 27.96     0.000 C 
ENDBRANCH  21  22
ENDBRANCH  20  21
ENDBRANCH  19  20
ENDBRANCH   4  19
TORSDOF 6
ENDMDL
MODEL 5
REMARK VINA RESULT:    -5.740     16.307     19.361
REMARK INTER + INTRA:          -8.978
REMARK INTER:                  -8.213
REMARK INTRA:                  -0.765
REMARK UNBOUND:                -1.225
REMARK  6 active torsions:
REMARK  status: ('A' for Active; 'I' for Inactive)
REMARK    1  A    between atoms: C03_1  and  C10_8 
REMARK    2  A    between atoms: C04_2  and  C08_6 
REMARK    3  A    between atoms: C15_13  and  C18_16 
REMARK    4  A    between atoms: C18_16  and  C20_18 
REMARK    5  A    between atoms: C20_18  and  C21_19 
REMARK    6  A    between atoms: C21_19  and  C22_20 
ROOT
ATOM      1  C08 CBD B1001     150.765 132.214 168.196  1.00 27.96     0.033 A 
ATOM      2  C11 CBD B1001     150.675 131.162 169.099  1.00 27.96     0.129 A 
ATOM      3  C12 CBD B1001     151.991 132.474 167.566  1.00 27.96     0.129 A 
ATOM      4  C15 CBD B1001     153.010 130.664 168.822  1.00 27.96    -0.018 A 
ATOM      5  C16 CBD B1001     151.789 130.397 169.429  1.00 27.96     0.023 A 
ATOM      6  C17 CBD B1001     153.113 131.703 167.895  1.00 27.96     0.023 A 
ATOM      7  O01 CBD B1001     149.437 130.906 169.705  1.00 27.96    -0.190 OA
ATOM      8  O02 CBD B1001     152.141 133.507 166.629  1.00 27.96    -0.190 OA
ENDROOT
BRANCH   1   9
ATOM      9  C04 CBD B1001     149.426 132.940 167.924  1.00 27.96     0.051 C 
ATOM     10  C07 CBD B1001     148.797 132.157 166.791  1.00 27.96    -0.030 C 
ATOM     11  C09 CBD B1001     147.511 132.351 166.633  1.00 27.96    -0.048 C 
ATOM     12  C06 CBD B1001     146.948 133.773 166.671  1.00 27.96     0.022 C 
ATOM     13  C13 CBD B1001     146.596 131.219 167.090  1.00 27.96     0.026 C 
ATOM     14  C05 CBD B1001     147.870 134.806 167.353  1.00 27.96     0.009 C 
ATOM     15  C03 CBD B1001     149.352 134.404 167.475  1.00 27.96     0.027 C 
BRANCH  15  16
ATOM     16  C10 CBD B1001     149.969 135.399 168.464  1.00 27.96    -0.044 C 
ATOM     17  C19 CBD B1001     150.523 136.533 168.031  1.00 27.96    -0.009 C 
ATOM     18  C14 CBD B1001     149.980 135.058 169.967  1.00 27.96     0.026 C 
ENDBRANCH  15  16
ENDBRANCH   1   9
BRANCH   4  19
ATOM     19  C18 CBD B1001     154.237 129.799 169.201  1.00 27.96     0.026 C 
BRANCH  19  20
ATOM     20  C20 CBD B1001     153.831 128.816 170.331  1.00 27.96     0.005 C 
BRANCH  20  21
ATOM     21  C21 CBD B1001     154.368 129.323 171.700  1.00 27.96     0.000 C 
BRANCH  21  22
ATOM     22  C22 CBD B1001     153.320 129.030 172.800  1.00 27.96     0.000 C 
ATOM     23  C23 CBD B1001     153.740 129.745 174.107  1.00 27.96     0.000 C 
ENDBRANCH  21  22
ENDBRANCH  20  21
ENDBRANCH  19  20
ENDBRANCH   4  19
TORSDOF 6
ENDMDL
